iopanoicacid
     RDKit          3D

 28 28  0  0  0  0  0  0  0  0999 V2000
   -6.4043   -1.2768   -4.0881 C   0  0  0  0  0  0  0  0  0  0  0  0
   -6.7049   -0.4002   -5.3196 C   0  0  0  0  0  0  0  0  0  0  0  0
   -7.8428    0.6383   -5.0782 C   0  0  1  0  0  0  0  0  0  0  0  0
   -7.3657    1.9549   -4.3321 C   0  0  0  0  0  0  0  0  0  0  0  0
   -6.6226    1.7202   -3.0189 C   0  0  0  0  0  0  0  0  0  0  0  0
   -5.2366    2.0167   -2.8777 C   0  0  0  0  0  0  0  0  0  0  0  0
   -4.0411    3.2329   -4.3481 I   0  0  0  0  0  0  0  0  0  0  0  0
   -4.5390    1.5884   -1.7400 C   0  0  0  0  0  0  0  0  0  0  0  0
   -5.1899    0.8552   -0.7479 C   0  0  0  0  0  0  0  0  0  0  0  0
   -4.0282    0.1792    1.0153 I   0  0  0  0  0  0  0  0  0  0  0  0
   -6.5621    0.6223   -0.8636 C   0  0  0  0  0  0  0  0  0  0  0  0
   -7.2020   -0.1105    0.0950 N   0  0  0  0  0  0  0  0  0  0  0  0
   -7.3040    1.1149   -1.9384 C   0  0  0  0  0  0  0  0  0  0  0  0
   -9.6268    0.9405   -1.8750 I   0  0  0  0  0  0  0  0  0  0  0  0
   -8.5420    0.9692   -6.4210 C   0  0  0  0  0  0  0  0  0  0  0  0
   -8.5181    2.1262   -6.9059 O   0  0  0  0  0  0  0  0  0  0  0  0
   -9.1855    0.0782   -7.0270 O   0  0  0  0  0  1  0  0  0  0  0  0
   -5.8454   -2.1616   -4.3845 H   0  0  0  0  0  0  0  0  0  0  0  0
   -5.7928   -0.7465   -3.3632 H   0  0  0  0  0  0  0  0  0  0  0  0
   -7.3294   -1.6088   -3.6142 H   0  0  0  0  0  0  0  0  0  0  0  0
   -7.0120   -1.0766   -6.1187 H   0  0  0  0  0  0  0  0  0  0  0  0
   -5.7992    0.1022   -5.6614 H   0  0  0  0  0  0  0  0  0  0  0  0
   -8.5980    0.1495   -4.4722 H   0  0  0  0  0  0  0  0  0  0  0  0
   -6.7527    2.5349   -5.0130 H   0  0  0  0  0  0  0  0  0  0  0  0
   -8.2303    2.5846   -4.1287 H   0  0  0  0  0  0  0  0  0  0  0  0
   -3.4833    1.8152   -1.6337 H   0  0  0  0  0  0  0  0  0  0  0  0
   -6.6377   -0.3591    0.9032 H   0  0  0  0  0  0  0  0  0  0  0  0
   -8.1742    0.1814    0.2361 H   0  0  0  0  0  0  0  0  0  0  0  0
  1  2  1  0
  2  3  1  0
  3  4  1  0
  4  5  1  0
  5  6  2  0
  6  7  1  0
  6  8  1  0
  8  9  2  0
  9 10  1  0
  9 11  1  0
 11 12  1  0
 11 13  2  0
 13 14  1  0
  3 15  1  0
 15 16  2  0
 15 17  1  0
 13  5  1  0
  1 18  1  0
  1 19  1  0
  1 20  1  0
  2 21  1  0
  2 22  1  0
  3 23  1  6
  4 24  1  0
  4 25  1  0
  8 26  1  0
 12 27  1  0
 12 28  1  0
M  CHG  1  17  -1
M  END
>  <InitialSmiles>  (1) 
CCC(CC1=C(I)C(N)=C(I)C=C1I)C(O)=O

>  <PrevIdx>  (1) 
0

>  <minimizedAffinity>  (1) 
-4.3502000000000001

>  <CNNscore>  (1) 
0.66597813370000003

>  <CNNaffinity>  (1) 
5.4159140587000003

>  <CNN_VS>  (1) 
3.6068804264000001

>  <CNNaffinity_variance>  (1) 
0.0708790272

>  <openmm_interaction>  (1) 
-31.111533053745006

$$$$
iopanoicacid
     RDKit          3D

 29 29  0  0  0  0  0  0  0  0999 V2000
   -5.5093    1.1667   -6.0327 C   0  0  0  0  0  0  0  0  0  0  0  0
   -6.9298    0.6744   -5.7522 C   0  0  0  0  0  0  0  0  0  0  0  0
   -7.8978    1.8631   -5.4918 C   0  0  2  0  0  0  0  0  0  0  0  0
   -7.5655    2.7147   -4.1983 C   0  0  0  0  0  0  0  0  0  0  0  0
   -6.7207    2.0873   -3.0804 C   0  0  0  0  0  0  0  0  0  0  0  0
   -5.3637    2.4838   -2.8635 C   0  0  0  0  0  0  0  0  0  0  0  0
   -4.2200    4.0802   -4.1251 I   0  0  0  0  0  0  0  0  0  0  0  0
   -4.6236    1.9101   -1.8173 C   0  0  0  0  0  0  0  0  0  0  0  0
   -5.1989    0.9572   -0.9721 C   0  0  0  0  0  0  0  0  0  0  0  0
   -4.0191    0.1636    0.7298 I   0  0  0  0  0  0  0  0  0  0  0  0
   -6.5276    0.5791   -1.1718 C   0  0  0  0  0  0  0  0  0  0  0  0
   -7.0973   -0.3408   -0.3215 N   0  0  0  0  0  0  0  0  0  0  0  0
   -7.3047    1.1481   -2.1900 C   0  0  0  0  0  0  0  0  0  0  0  0
   -9.5481    0.6165   -2.2339 I   0  0  0  0  0  0  0  0  0  0  0  0
   -9.3878    1.4232   -5.5796 C   0  0  0  0  0  0  0  0  0  0  0  0
  -10.2702    2.2583   -5.4347 O   0  0  0  0  0  0  0  0  0  0  0  0
   -9.7155    0.1397   -5.8756 O   0  0  0  0  0  0  0  0  0  0  0  0
   -4.9364    1.2619   -5.1172 H   0  0  0  0  0  0  0  0  0  0  0  0
   -5.5178    2.1173   -6.5654 H   0  0  0  0  0  0  0  0  0  0  0  0
   -4.9885    0.4536   -6.6502 H   0  0  0  0  0  0  0  0  0  0  0  0
   -6.9395   -0.0392   -4.9259 H   0  0  0  0  0  0  0  0  0  0  0  0
   -7.2718    0.1278   -6.6329 H   0  0  0  0  0  0  0  0  0  0  0  0
   -7.7888    2.5392   -6.3413 H   0  0  0  0  0  0  0  0  0  0  0  0
   -7.0672    3.6136   -4.5375 H   0  0  0  0  0  0  0  0  0  0  0  0
   -8.4894    3.0790   -3.7514 H   0  0  0  0  0  0  0  0  0  0  0  0
   -3.5945    2.2161   -1.6610 H   0  0  0  0  0  0  0  0  0  0  0  0
   -6.5392   -0.5728    0.4995 H   0  0  0  0  0  0  0  0  0  0  0  0
   -8.1132   -0.2488   -0.2421 H   0  0  0  0  0  0  0  0  0  0  0  0
  -10.6937    0.0396   -5.8703 H   0  0  0  0  0  0  0  0  0  0  0  0
  1  2  1  0
  2  3  1  0
  3  4  1  0
  4  5  1  0
  5  6  2  0
  6  7  1  0
  6  8  1  0
  8  9  2  0
  9 10  1  0
  9 11  1  0
 11 12  1  0
 11 13  2  0
 13 14  1  0
  3 15  1  0
 15 16  2  0
 15 17  1  0
 13  5  1  0
  1 18  1  0
  1 19  1  0
  1 20  1  0
  2 21  1  0
  2 22  1  0
  3 23  1  6
  4 24  1  0
  4 25  1  0
  8 26  1  0
 12 27  1  0
 12 28  1  0
 17 29  1  0
M  END
>  <InitialSmiles>  (2) 
CCC(CC1=C(I)C(N)=C(I)C=C1I)C(O)=O

>  <PrevIdx>  (2) 
1

>  <minimizedAffinity>  (2) 
-4.3502000000000001

>  <CNNscore>  (2) 
0.66597813370000003

>  <CNNaffinity>  (2) 
5.4159140587000003

>  <CNN_VS>  (2) 
3.6068804264000001

>  <CNNaffinity_variance>  (2) 
0.0708790272

>  <openmm_interaction>  (2) 
-27.313582527933249

$$$$
