iopanoicacid
     RDKit          3D

 28 28  0  0  0  0  0  0  0  0999 V2000
   -6.5460   -1.6280   -4.0780 C   0  0  0  0  0  0  0  0  0  0  0  0
   -7.3900   -1.0410   -5.2210 C   0  0  0  0  0  0  0  0  0  0  0  0
   -8.6480   -0.3180   -4.7290 C   0  0  1  0  0  0  0  0  0  0  0  0
   -8.3450    1.1280   -4.2730 C   0  0  0  0  0  0  0  0  0  0  0  0
   -7.5300    1.1180   -3.0240 C   0  0  0  0  0  0  0  0  0  0  0  0
   -6.1650    1.4920   -3.0030 C   0  0  0  0  0  0  0  0  0  0  0  0
   -5.1780    2.3710   -4.6490 I   0  0  0  0  0  0  0  0  0  0  0  0
   -5.3650    1.2860   -1.8880 C   0  0  0  0  0  0  0  0  0  0  0  0
   -5.8940    0.6460   -0.7690 C   0  0  0  0  0  0  0  0  0  0  0  0
   -4.5360    0.3000    0.8040 I   0  0  0  0  0  0  0  0  0  0  0  0
   -7.2540    0.2610   -0.7280 C   0  0  0  0  0  0  0  0  0  0  0  0
   -7.7400   -0.5850    0.2760 N   0  0  0  0  0  0  0  0  0  0  0  0
   -8.0750    0.6490   -1.8150 C   0  0  0  0  0  0  0  0  0  0  0  0
  -10.1710    0.6340   -1.5710 I   0  0  0  0  0  0  0  0  0  0  0  0
   -9.7680   -0.2890   -5.8370 C   0  0  0  0  0  0  0  0  0  0  0  0
  -10.5100    0.6890   -5.8650 O   0  0  0  0  0  0  0  0  0  0  0  0
   -9.8380   -1.3290   -6.5510 O   0  0  0  0  0  1  0  0  0  0  0  0
   -6.2250   -2.6610   -4.3150 H   0  0  0  0  0  0  0  0  0  0  0  0
   -5.6450   -0.9990   -3.9070 H   0  0  0  0  0  0  0  0  0  0  0  0
   -7.1330   -1.6550   -3.1330 H   0  0  0  0  0  0  0  0  0  0  0  0
   -7.7130   -1.8510   -5.9220 H   0  0  0  0  0  0  0  0  0  0  0  0
   -6.7760   -0.3230   -5.8120 H   0  0  0  0  0  0  0  0  0  0  0  0
   -9.1140   -0.8880   -3.8910 H   0  0  0  0  0  0  0  0  0  0  0  0
   -7.8270    1.6560   -5.1100 H   0  0  0  0  0  0  0  0  0  0  0  0
   -9.3410    1.6390   -4.1250 H   0  0  0  0  0  0  0  0  0  0  0  0
   -4.3140    1.5990   -1.8790 H   0  0  0  0  0  0  0  0  0  0  0  0
   -7.2220   -0.5820    1.1590 H   0  0  0  0  0  0  0  0  0  0  0  0
   -8.7750   -0.6310    0.3670 H   0  0  0  0  0  0  0  0  0  0  0  0
  1  2  1  0
  2  3  1  0
  3  4  1  0
  4  5  1  0
  5  6  2  0
  6  7  1  0
  6  8  1  0
  8  9  2  0
  9 10  1  0
  9 11  1  0
 11 12  1  0
 11 13  2  0
 13 14  1  0
  3 15  1  0
 15 16  2  0
 15 17  1  0
 13  5  1  0
  1 18  1  0
  1 19  1  0
  1 20  1  0
  2 21  1  0
  2 22  1  0
  3 23  1  1
  4 24  1  0
  4 25  1  0
  8 26  1  0
 12 27  1  0
 12 28  1  0
M  CHG  1  17  -1
M  END
>  <InitialSmiles>  (1) 
CCC(CC1=C(I)C(N)=C(I)C=C1I)C(O)=O

>  <PrevIdx>  (1) 
0

>  <minimizedAffinity>  (1) 
-4.3502000000000001

>  <CNNscore>  (1) 
0.66597813370000003

>  <CNNaffinity>  (1) 
5.4159140587000003

>  <CNN_VS>  (1) 
3.6068804264000001

>  <CNNaffinity_variance>  (1) 
0.0708790272

>  <openmm_interaction>  (1) 
-31.111533053745006

$$$$
iopanoicacid
     RDKit          3D

 29 29  0  0  0  0  0  0  0  0999 V2000
   -5.9330    1.1230   -6.3070 C   0  0  0  0  0  0  0  0  0  0  0  0
   -7.2650    0.7410   -5.6550 C   0  0  0  0  0  0  0  0  0  0  0  0
   -8.0930    1.9910   -5.3190 C   0  0  2  0  0  0  0  0  0  0  0  0
   -7.7110    2.6690   -3.9890 C   0  0  0  0  0  0  0  0  0  0  0  0
   -6.9170    1.8930   -2.9750 C   0  0  0  0  0  0  0  0  0  0  0  0
   -5.5630    2.2070   -2.7510 C   0  0  0  0  0  0  0  0  0  0  0  0
   -4.4560    3.5990   -3.8820 I   0  0  0  0  0  0  0  0  0  0  0  0
   -4.8540    1.6400   -1.6920 C   0  0  0  0  0  0  0  0  0  0  0  0
   -5.4830    0.7470   -0.8390 C   0  0  0  0  0  0  0  0  0  0  0  0
   -4.3610    0.1460    0.8260 I   0  0  0  0  0  0  0  0  0  0  0  0
   -6.8190    0.3240   -1.0740 C   0  0  0  0  0  0  0  0  0  0  0  0
   -7.3640   -0.6990   -0.3170 N   0  0  0  0  0  0  0  0  0  0  0  0
   -7.5200    0.9370   -2.1490 C   0  0  0  0  0  0  0  0  0  0  0  0
   -9.5520    0.4750   -2.4320 I   0  0  0  0  0  0  0  0  0  0  0  0
   -9.5910    1.7780   -5.3980 C   0  0  0  0  0  0  0  0  0  0  0  0
  -10.4810    2.5530   -5.0910 O   0  0  0  0  0  0  0  0  0  0  0  0
   -9.9360    0.6040   -6.0340 O   0  0  0  0  0  0  0  0  0  0  0  0
   -5.0850    0.6980   -5.7260 H   0  0  0  0  0  0  0  0  0  0  0  0
   -5.7830    2.2270   -6.3340 H   0  0  0  0  0  0  0  0  0  0  0  0
   -5.9030    0.7390   -7.3480 H   0  0  0  0  0  0  0  0  0  0  0  0
   -7.0810    0.1450   -4.7280 H   0  0  0  0  0  0  0  0  0  0  0  0
   -7.8510    0.0940   -6.3570 H   0  0  0  0  0  0  0  0  0  0  0  0
   -7.9130    2.7500   -6.1420 H   0  0  0  0  0  0  0  0  0  0  0  0
   -7.1090    3.5770   -4.2670 H   0  0  0  0  0  0  0  0  0  0  0  0
   -8.6510    3.0160   -3.4680 H   0  0  0  0  0  0  0  0  0  0  0  0
   -3.8000    1.9030   -1.5240 H   0  0  0  0  0  0  0  0  0  0  0  0
   -6.9010   -0.9290    0.5680 H   0  0  0  0  0  0  0  0  0  0  0  0
   -8.3830   -0.8810   -0.3760 H   0  0  0  0  0  0  0  0  0  0  0  0
  -10.9170    0.5300   -6.1690 H   0  0  0  0  0  0  0  0  0  0  0  0
  1  2  1  0
  2  3  1  0
  3  4  1  0
  4  5  1  0
  5  6  2  0
  6  7  1  0
  6  8  1  0
  8  9  2  0
  9 10  1  0
  9 11  1  0
 11 12  1  0
 11 13  2  0
 13 14  1  0
  3 15  1  0
 15 16  2  0
 15 17  1  0
 13  5  1  0
  1 18  1  0
  1 19  1  0
  1 20  1  0
  2 21  1  0
  2 22  1  0
  3 23  1  6
  4 24  1  0
  4 25  1  0
  8 26  1  0
 12 27  1  0
 12 28  1  0
 17 29  1  0
M  END
>  <InitialSmiles>  (2) 
CCC(CC1=C(I)C(N)=C(I)C=C1I)C(O)=O

>  <PrevIdx>  (2) 
1

>  <minimizedAffinity>  (2) 
-4.3502000000000001

>  <CNNscore>  (2) 
0.66597813370000003

>  <CNNaffinity>  (2) 
5.4159140587000003

>  <CNN_VS>  (2) 
3.6068804264000001

>  <CNNaffinity_variance>  (2) 
0.0708790272

>  <openmm_interaction>  (2) 
-27.313582527933249

$$$$
